LAMMPS (29 Aug 2024 - Development - f820c928a)
# Tethered nanorods

atom_style	molecular

read_data	data.rigid.tnr
Reading data file ...
  orthogonal box = (-31.122 -31.122 -31.122) to (31.122 31.122 31.122)
  reading atoms ...
  5600 atoms
  scanning bonds ...
  orthogonal box = (-31.122 -31.122 -31.122) to (31.122 31.122 31.122)
  reading bonds ...
  1600 bonds
Finding 1-2 1-3 1-4 neighbors ...
     2 = max # of 1-2 neighbors
     1 = max # of 1-3 neighbors
     1 = max # of 1-4 neighbors
     2 = max # of special neighbors

# Specify bond parameters

bond_style	fene
bond_coeff	1 30.0 1.5 1.0 1.0

special_bonds	fene
Finding 1-2 1-3 1-4 neighbors ...
     2 = max # of 1-2 neighbors
     2 = max # of special neighbors

# Specify initial velocities

velocity	all create 1.4 109345

# Specify rigid components

group		rods type 2
4000 atoms in group rods
group		tethers	subtract all rods
1600 atoms in group tethers

neigh_modify 	exclude	molecule/intra rods delay 0 every 1

# Specify the pair potentials

pair_style	lj/cut	2.5
pair_modify	shift	yes
pair_coeff	* * 1.0	1.0 1.122
pair_coeff	2 2 1.0 1.0 2.5

# Specify output

thermo	100
thermo_style custom step temp pe etotal press enthalpy lx ly lz pxx pyy pzz
thermo_modify flush yes lost warn

timestep	0.005

fix	1	rods	rigid molecule
  800 rigid bodies with 4000 atoms
fix	2	tethers	nve
fix	3	all	langevin 1.4 1.4 1.0 437624

run	5000

CITE-CITE-CITE-CITE-CITE-CITE-CITE-CITE-CITE-CITE-CITE-CITE-CITE

Your simulation uses code contributions which should be cited:

- Type Label Framework: https://doi.org/10.1021/acs.jpcb.3c08419

@Article{Gissinger24,
 author = {Jacob R. Gissinger, Ilia Nikiforov, Yaser Afshar, Brendon Waters, Moon-ki Choi, Daniel S. Karls, Alexander Stukowski, Wonpil Im, Hendrik Heinz, Axel Kohlmeyer, and Ellad B. Tadmor},
 title = {Type Label Framework for Bonded Force Fields in LAMMPS},
 journal = {J. Phys. Chem. B},
 year =    2024,
 volume =  128,
 number =  13,
 pages =   {3282--3297}
}

CITE-CITE-CITE-CITE-CITE-CITE-CITE-CITE-CITE-CITE-CITE-CITE-CITE

Generated 0 of 1 mixed pair_coeff terms from geometric mixing rule
Step          Temp          PotEng         TotEng         Press         Enthalpy          Lx             Ly             Lz            Pxx            Pyy            Pzz
0   1.3963219      5.9478449      7.0445809      0.048565317    9.13595        62.244         62.244         62.244         0.0091983659   0.11850113     0.017996458
Averages over the last 26 of 51 rows, steps 2500 to 5000:
Temp PotEng TotEng Press Enthalpy Lx Ly Lz Pxx Pyy Pzz
1.40047 5.91012 7.01012 0.00428116 7.19448 62.244 62.244 62.244 0.00542159 0.00407298 0.00334892
Loop time of 4.72231 on 8 procs for 5000 steps with 5600 atoms

# Replace fix rigid and fix langevin with new ones

unfix	1
unfix	3

fix	3	tethers langevin 1.4 1.4 1.0 198450

# Test different integrators for rods

fix	1 rods	rigid/nve molecule
  800 rigid bodies with 4000 atoms
print 	"rigid/nve"
rigid/nve
run	1000
Generated 0 of 1 mixed pair_coeff terms from geometric mixing rule
Step          Temp          PotEng         TotEng         Press         Enthalpy          Lx             Ly             Lz            Pxx            Pyy            Pzz
5000   1.4013545      5.900503       7.0011919     -0.0088534081   6.6199374      62.244         62.244         62.244        -0.038474586    0.04052875    -0.028614388
Averages over the last 6 of 11 rows, steps 5500 to 6000:
Temp PotEng TotEng Press Enthalpy Lx Ly Lz Pxx Pyy Pzz
1.40806 5.88624 6.9922 0.00446331 7.1844 62.244 62.244 62.244 0.00563333 0.00375689 0.00399971
Loop time of 1.1287 on 8 procs for 1000 steps with 5600 atoms

unfix	1

fix	1 rods	rigid/nvt molecule temp 1.4 1.4 1.0
  800 rigid bodies with 4000 atoms
print 	"rigid/nvt"
rigid/nvt
run	1000
Generated 0 of 1 mixed pair_coeff terms from geometric mixing rule
Step          Temp          PotEng         TotEng         Press         Enthalpy          Lx             Ly             Lz            Pxx            Pyy            Pzz
6000   1.4079202      5.878439       6.9842849      0.013849429    7.5806831      62.244         62.244         62.244         0.017868809    0.059433045   -0.035753567
Averages over the last 6 of 11 rows, steps 6500 to 7000:
Temp PotEng TotEng Press Enthalpy Lx Ly Lz Pxx Pyy Pzz
1.41444 5.878 6.98897 0.00474242 7.19319 62.244 62.244 62.244 0.00453864 0.00457052 0.0051181
Loop time of 1.20509 on 8 procs for 1000 steps with 5600 atoms

unfix	1

compute	myTemp all temp

fix	1 rods	rigid/npt molecule temp 1.4 1.4 1.0 iso 0.05 0.05 1.0         dilate all
  800 rigid bodies with 4000 atoms
print 	"rigid/npt iso"
rigid/npt iso
fix_modify 1 temp myTemp

run	1000
Generated 0 of 1 mixed pair_coeff terms from geometric mixing rule
Step          Temp          PotEng         TotEng         Press         Enthalpy          Lx             Ly             Lz            Pxx            Pyy            Pzz
7000   1.3853065      5.8740935      6.9621775      0.0026718024   7.0772334      62.244         62.244         62.244         0.0033569561   0.0049672834  -0.00030883215
Averages over the last 6 of 11 rows, steps 7500 to 8000:
Temp PotEng TotEng Press Enthalpy Lx Ly Lz Pxx Pyy Pzz
1.53232 5.62835 6.83191 0.0531712 7.25674 35.1582 35.1582 35.1582 0.0536313 0.0599514 0.045931
Loop time of 1.72567 on 8 procs for 1000 steps with 5600 atoms

unfix	1

fix	1 rods	rigid/npt molecule temp 1.4 1.4 1.0 x 0.05 0.05 1.0 dilate all
  800 rigid bodies with 4000 atoms
print 	"rigid/npt x"
rigid/npt x
run	1000
Generated 0 of 1 mixed pair_coeff terms from geometric mixing rule
Step          Temp          PotEng         TotEng         Press         Enthalpy          Lx             Ly             Lz            Pxx            Pyy            Pzz
8000   1.486018       5.5432547      6.7104423      0.015710714    6.8070661      32.535598      32.535598      32.535598      0.10095538     0.0079561103  -0.061779352
Averages over the last 6 of 11 rows, steps 8500 to 9000:
Temp PotEng TotEng Press Enthalpy Lx Ly Lz Pxx Pyy Pzz
1.43592 5.4262 6.55404 0.0369985 6.74792 28.0081 32.5356 32.5356 0.0451598 0.0224397 0.0433961
Loop time of 1.39707 on 8 procs for 1000 steps with 5600 atoms

unfix	1

fix	1 rods	rigid/nph molecule iso 0.05 0.05 1.0 dilate all
  800 rigid bodies with 4000 atoms
print 	"rigid/nph iso"
rigid/nph iso
run	1000
Generated 0 of 1 mixed pair_coeff terms from geometric mixing rule
Step          Temp          PotEng         TotEng         Press         Enthalpy          Lx             Ly             Lz            Pxx            Pyy            Pzz
9000   1.4564433      5.3728799      6.5168381     -0.11724173     5.9245708      26.724281      32.535598      32.535598     -0.20888135    -0.11082304    -0.032020795
Averages over the last 6 of 11 rows, steps 9500 to 10000:
Temp PotEng TotEng Press Enthalpy Lx Ly Lz Pxx Pyy Pzz
1.44937 5.27174 6.41015 0.0397527 6.58323 25.3873 30.9079 30.9079 0.027857 0.0518725 0.0395286
Loop time of 1.64709 on 8 procs for 1000 steps with 5600 atoms

unfix	1

fix	1 rods	rigid/nph molecule x 0.05 0.05 1.0 y 0.05 0.05 1.0         couple xy dilate all
  800 rigid bodies with 4000 atoms
print 	"rigid/nph xy couple"
rigid/nph xy couple
run	1000
Generated 0 of 1 mixed pair_coeff terms from geometric mixing rule
Step          Temp          PotEng         TotEng         Press         Enthalpy          Lx             Ly             Lz            Pxx            Pyy            Pzz
10000   1.4191737      5.2526126      6.3672975      0.11371702     6.8492359      25.204777      30.685671      30.685671      0.1205783      0.40454232    -0.18396957
Averages over the last 6 of 11 rows, steps 10500 to 11000:
Temp PotEng TotEng Press Enthalpy Lx Ly Lz Pxx Pyy Pzz
1.44873 5.16932 6.30721 0.0477076 6.50373 24.8485 30.2519 30.6857 0.0371411 0.064042 0.0419398
Loop time of 1.69211 on 8 procs for 1000 steps with 5600 atoms
