LAMMPS (29 Aug 2024 - Development - patch_29Aug2024-394-g75f86a68a7-modified)
# 2d NEMD simulation

units           lj
atom_style      atomic
dimension       2

lattice         sq2 0.8442
Lattice spacing in x,y,z = 1.5391903 1.5391903 1.5391903
region          box prism 0 10 0 8 -0.5 0.5 0 0 0
create_box      2 box
Created triclinic box = (0 0 -0.76959516) to (15.391903 12.313523 0.76959516) with tilt (0 0 0)
create_atoms    1 box
Created 160 atoms
mass            * 1.0

velocity        all create 1.44 87287 loop geom

region          slice block 4 6 INF INF INF INF
set             region slice type 2
Setting atom values ...
  40 settings made for type

pair_style      lj/cut 4.0
pair_coeff      * * 1.0 1.0

neighbor        0.3 bin
neigh_modify    delay 0 every 1

fix             1 all nvt/sllod temp 1.0 1.0 1.0 tchain 1
fix             2 all deform 1 xy erate 0.01 remap v

#dump           1 all custom 500 dump.nemd id type x y z

#dump           2 all image 100 image.*.jpg type type adiam 1.2
#dump_modify    2 pad 5

#dump           3 all movie 100 movie.mpg type type adiam 1.2
#dump_modify    3 pad 5

thermo          50

run             1000
Generated 0 of 1 mixed pair_coeff terms from geometric mixing rule
Step          Temp          E_pair         E_mol          TotEng         Press          Volume
0   1.44          -2.6548731      0             -1.2238731      1.9354912      189.52855
Averages over the last 11 of 21 rows, steps 500 to 1000:
Temp E_pair E_mol TotEng Press Volume
0.979092 -2.28357 0 -1.3106 4.5739 189.529
Loop time of 0.0331477 on 1 procs for 1000 steps with 160 atoms
